OS:Version,
{ebcc1bf0-c1cb-45fb-99e1-c5612c03cf06},  !- Handle
  1.3.0;                         !- Version Identifier

OS:Space,
{a8f5b462-7a6a-4835-b6af-0d33fa8ecb3e},           !- Handle
sp-1-Space,                  !- Name
,                   !- Space Type Name
  ,     !- Default Construction Set Name
,     !- Default Schedule Set Name
,   !- Direction of Relative North {deg}
,                    !- X Origin {m}
,                    !- Y Origin {m}
,                    !- Z Origin {m}
,          !- Building Story Name
;            !- Thermal Zone Name

OS:Surface,
  {0ebd270f-5274-4f3f-a9bb-2c9545ae640b},                           !- Handle
  su-1,                                !- Name
  Wall,                                   !- Surface Type
  {8da47f81-b40b-45df-b5df-fbdd09803bec},               !- Construction Name
  sp-1-Space,                    !- Space Name
  Outdoors,                   !- Outside Boundary Condition
  ,             !- Outside Boundary Condition Object
  SunExposed,                                !- Sun Exposure
  WindExposed,                               !- Wind Exposure
  ,                         !- View Factor to Ground
  ,                                !- Number of Vertices
10.16478911125104,-8.101413155048087,3.048,  !- X,Y,Z Vertex 1 {m}
  10.1647891112511,24.71418977818397,3.048,  !- X,Y,Z Vertex 2 {m}
  10.1647891112511,24.71418977818397,6.2434055637038535,  !- X,Y,Z Vertex 3 {m}
  10.16478911125104,-8.101413155048087,6.2434055637038535;  !- X,Y,Z Vertex 4 {m}
  
OS:Surface,
  {bbd425c1-c9ef-45d1-ae14-05fec78943ac},                           !- Handle
  su-2,                                !- Name
  Floor,                                   !- Surface Type
  {},               !- Construction Name
  sp-1-Space,                    !- Space Name
  Ground,                   !- Outside Boundary Condition
  ,             !- Outside Boundary Condition Object
  NoSun,                                !- Sun Exposure
  NoWind,                               !- Wind Exposure
  ,                         !- View Factor to Ground
  ,                                !- Number of Vertices
10.1647891112511,24.71418977818397,3.048,  !- X,Y,Z Vertex 1 {m}
  10.1647891112511,-8.101413155047963,3.048,  !- X,Y,Z Vertex 2 {m}
  -15.23521088874883,-8.101413155047963,3.048,  !- X,Y,Z Vertex 3 {m}
  -15.23521088874883,10.634739871283642,3.048;  !- X,Y,Z Vertex 4 {m}
  
OS:Surface,
  {c5137026-abe6-47a8-aeec-96a142823517},                           !- Handle
  su-3,                                !- Name
  Wall,                                   !- Surface Type
  {8da47f81-b40b-45df-b5df-fbdd09803bec},               !- Construction Name
  sp-1-Space,                    !- Space Name
  Outdoors,                   !- Outside Boundary Condition
  ,             !- Outside Boundary Condition Object
  SunExposed,                                !- Sun Exposure
  WindExposed,                               !- Wind Exposure
  ,                         !- View Factor to Ground
  ,                                !- Number of Vertices
-15.23521088874886,10.634739871283672,3.048,  !- X,Y,Z Vertex 1 {m}
  -15.235210888748892,-8.101413155047995,3.048,  !- X,Y,Z Vertex 2 {m}
  -15.235210888748892,-8.101413155047995,6.2434055637038535,  !- X,Y,Z Vertex 3 {m}
  -15.23521088874886,10.634739871283672,6.2434055637038535;  !- X,Y,Z Vertex 4 {m}
  
OS:Surface,
  {e1babb4c-7941-46b3-ae58-7e42399add51},                           !- Handle
  su-4,                                !- Name
  Wall,                                   !- Surface Type
  {8da47f81-b40b-45df-b5df-fbdd09803bec},               !- Construction Name
  sp-1-Space,                    !- Space Name
  Outdoors,                   !- Outside Boundary Condition
  ,             !- Outside Boundary Condition Object
  SunExposed,                                !- Sun Exposure
  WindExposed,                               !- Wind Exposure
  ,                         !- View Factor to Ground
  ,                                !- Number of Vertices
10.1647891112511,24.71418977818397,3.048,  !- X,Y,Z Vertex 1 {m}
  -15.23521088874886,10.634739871283672,3.048,  !- X,Y,Z Vertex 2 {m}
  -15.23521088874886,10.634739871283672,6.2434055637038535,  !- X,Y,Z Vertex 3 {m}
  10.1647891112511,24.71418977818397,6.2434055637038535;  !- X,Y,Z Vertex 4 {m}
  
OS:Surface,
  {2419d01a-bf95-41c0-aec3-d3a74a0ff6c6},                           !- Handle
  su-5,                                !- Name
  Floor,                                   !- Surface Type
  {},               !- Construction Name
  sp-1-Space,                    !- Space Name
  Ground,                   !- Outside Boundary Condition
  ,             !- Outside Boundary Condition Object
  NoSun,                                !- Sun Exposure
  NoWind,                               !- Wind Exposure
  ,                         !- View Factor to Ground
  ,                                !- Number of Vertices
10.1647891112511,24.71418977818397,3.048,  !- X,Y,Z Vertex 1 {m}
  10.1647891112511,-8.101413155047963,3.048,  !- X,Y,Z Vertex 2 {m}
  -15.23521088874883,-8.101413155047963,3.048,  !- X,Y,Z Vertex 3 {m}
  -15.23521088874883,10.634739871283642,3.048;  !- X,Y,Z Vertex 4 {m}
  
OS:Surface,
  {de3f537c-cf2f-4464-9898-1a46c28c5ba2},                           !- Handle
  su-6,                                !- Name
  Wall,                                   !- Surface Type
  {8da47f81-b40b-45df-b5df-fbdd09803bec},               !- Construction Name
  sp-1-Space,                    !- Space Name
  Outdoors,                   !- Outside Boundary Condition
  ,             !- Outside Boundary Condition Object
  SunExposed,                                !- Sun Exposure
  WindExposed,                               !- Wind Exposure
  ,                         !- View Factor to Ground
  ,                                !- Number of Vertices
-15.235210888748892,-8.101413155047995,3.048,  !- X,Y,Z Vertex 1 {m}
  10.16478911125104,-8.101413155048087,3.048,  !- X,Y,Z Vertex 2 {m}
  10.16478911125104,-8.101413155048087,6.2434055637038535,  !- X,Y,Z Vertex 3 {m}
  -15.235210888748892,-8.101413155047995,6.2434055637038535;  !- X,Y,Z Vertex 4 {m}
  
OS:Space,
{4200b4dd-7d3a-4df7-b816-3897bcc8acae},           !- Handle
sp-2-Space,                  !- Name
,                   !- Space Type Name
  ,     !- Default Construction Set Name
,     !- Default Schedule Set Name
,   !- Direction of Relative North {deg}
,                    !- X Origin {m}
,                    !- Y Origin {m}
,                    !- Z Origin {m}
,          !- Building Story Name
;            !- Thermal Zone Name

OS:Surface,
  {a2c914ff-bc5f-4972-aac0-f2709bdcd47c},                           !- Handle
  su-7,                                !- Name
  Wall,                                   !- Surface Type
  {8da47f81-b40b-45df-b5df-fbdd09803bec},               !- Construction Name
  sp-2-Space,                    !- Space Name
  Outdoors,                   !- Outside Boundary Condition
  ,             !- Outside Boundary Condition Object
  SunExposed,                                !- Sun Exposure
  WindExposed,                               !- Wind Exposure
  ,                         !- View Factor to Ground
  ,                                !- Number of Vertices
10.16478911125104,-8.101413155048087,0.0,  !- X,Y,Z Vertex 1 {m}
  10.1647891112511,24.71418977818397,0.0,  !- X,Y,Z Vertex 2 {m}
  10.1647891112511,24.71418977818397,2.6860500000000003,  !- X,Y,Z Vertex 3 {m}
  10.16478911125104,-8.101413155048087,2.6860500000000003;  !- X,Y,Z Vertex 4 {m}
  
OS:Surface,
  {877fa15e-7014-47d9-8854-4332c307cf84},                           !- Handle
  su-8,                                !- Name
  Floor,                                   !- Surface Type
  {},               !- Construction Name
  sp-2-Space,                    !- Space Name
  Ground,                   !- Outside Boundary Condition
  ,             !- Outside Boundary Condition Object
  NoSun,                                !- Sun Exposure
  NoWind,                               !- Wind Exposure
  ,                         !- View Factor to Ground
  ,                                !- Number of Vertices
-15.23521088874886,10.634739871283672,0.0,  !- X,Y,Z Vertex 1 {m}
  10.16478911125109,24.714189778183975,0.0,  !- X,Y,Z Vertex 2 {m}
  10.164789111251048,-8.101413155048082,0.0,  !- X,Y,Z Vertex 3 {m}
  -15.235210888748911,-8.101413155048,0.0;  !- X,Y,Z Vertex 4 {m}
  
OS:Surface,
  {a18f3e80-78a3-4c61-899a-c279b9a32e65},                           !- Handle
  su-9,                                !- Name
  Wall,                                   !- Surface Type
  {8da47f81-b40b-45df-b5df-fbdd09803bec},               !- Construction Name
  sp-2-Space,                    !- Space Name
  Outdoors,                   !- Outside Boundary Condition
  ,             !- Outside Boundary Condition Object
  SunExposed,                                !- Sun Exposure
  WindExposed,                               !- Wind Exposure
  ,                         !- View Factor to Ground
  ,                                !- Number of Vertices
10.1647891112511,24.71418977818397,0.0,  !- X,Y,Z Vertex 1 {m}
  -15.23521088874886,10.634739871283672,0.0,  !- X,Y,Z Vertex 2 {m}
  -15.23521088874886,10.634739871283672,2.6860500000000003,  !- X,Y,Z Vertex 3 {m}
  10.1647891112511,24.71418977818397,2.6860500000000003;  !- X,Y,Z Vertex 4 {m}
  
OS:Surface,
  {6659383e-f1eb-4784-8e53-0a2db0b338f2},                           !- Handle
  su-10,                                !- Name
  Wall,                                   !- Surface Type
  {8da47f81-b40b-45df-b5df-fbdd09803bec},               !- Construction Name
  sp-2-Space,                    !- Space Name
  Outdoors,                   !- Outside Boundary Condition
  ,             !- Outside Boundary Condition Object
  SunExposed,                                !- Sun Exposure
  WindExposed,                               !- Wind Exposure
  ,                         !- View Factor to Ground
  ,                                !- Number of Vertices
-15.23521088874886,10.634739871283672,0.0,  !- X,Y,Z Vertex 1 {m}
  -15.235210888748892,-8.101413155047995,0.0,  !- X,Y,Z Vertex 2 {m}
  -15.235210888748892,-8.101413155047995,2.6860500000000003,  !- X,Y,Z Vertex 3 {m}
  -15.23521088874886,10.634739871283672,2.6860500000000003;  !- X,Y,Z Vertex 4 {m}
  
OS:Surface,
  {2c9a2532-6aca-4024-ba00-b15438dff278},                           !- Handle
  su-11,                                !- Name
  Wall,                                   !- Surface Type
  {8da47f81-b40b-45df-b5df-fbdd09803bec},               !- Construction Name
  sp-2-Space,                    !- Space Name
  Outdoors,                   !- Outside Boundary Condition
  ,             !- Outside Boundary Condition Object
  SunExposed,                                !- Sun Exposure
  WindExposed,                               !- Wind Exposure
  ,                         !- View Factor to Ground
  ,                                !- Number of Vertices
-15.235210888748892,-8.101413155047995,0.0,  !- X,Y,Z Vertex 1 {m}
  10.16478911125104,-8.101413155048087,0.0,  !- X,Y,Z Vertex 2 {m}
  10.16478911125104,-8.101413155048087,2.6860500000000003,  !- X,Y,Z Vertex 3 {m}
  -15.235210888748892,-8.101413155047995,2.6860500000000003;  !- X,Y,Z Vertex 4 {m}
  
OS:Space,
{1dc4de5b-8330-4e59-a649-b6fd2186f371},           !- Handle
sp-3-Space,                  !- Name
,                   !- Space Type Name
  ,     !- Default Construction Set Name
,     !- Default Schedule Set Name
,   !- Direction of Relative North {deg}
,                    !- X Origin {m}
,                    !- Y Origin {m}
,                    !- Z Origin {m}
,          !- Building Story Name
;            !- Thermal Zone Name

OS:Space,
{fc8f0af4-28a5-47f6-b99a-9f063b589b20},           !- Handle
sp-4-Space,                  !- Name
,                   !- Space Type Name
  ,     !- Default Construction Set Name
,     !- Default Schedule Set Name
,   !- Direction of Relative North {deg}
,                    !- X Origin {m}
,                    !- Y Origin {m}
,                    !- Z Origin {m}
,          !- Building Story Name
;            !- Thermal Zone Name

OS:Space,
{100d90b3-12d7-4496-93b3-2122222b64a4},           !- Handle
sp-5-Space,                  !- Name
,                   !- Space Type Name
  ,     !- Default Construction Set Name
,     !- Default Schedule Set Name
,   !- Direction of Relative North {deg}
,                    !- X Origin {m}
,                    !- Y Origin {m}
,                    !- Z Origin {m}
,          !- Building Story Name
;            !- Thermal Zone Name

OS:Construction,
{8da47f81-b40b-45df-b5df-fbdd09803bec},                              !- Handle
Basic Wall:Generic - 8",                                            !- Name
,                            !- Surface Rendering Name
{09bbcb19-9614-48e9-8cb4-7ab20178a131};                   !- Layer 1

OS:Material,
{09bbcb19-9614-48e9-8cb4-7ab20178a131},                              !- Handle
Default Wall,                                            !- Name
MediumRough,                                       !- Roughness
0.666666666666667,                                 	   !- Thickness
123.0,                                    !- Conductivity
123.0,                                         !- Density
123.0,                                    !- Specific Heat
,                                                   !- Thermal Absorptance
,                                                   !- Solar Absorptance
;                                                   !- Visible Absorptance

OS:Luminaire,
{3453a588-68a4-46e5-96db-71989b05a0fb},                              !- Handle
Model Group:Control Zone 1:321646Ceiling Light - Linear Box:1'x4'(1 Lamp) - 120V:320528,                                            !- Name
a0824976-16fb-4680-9801-255dc602b29a,                         !- Luminaire Definition Name
4200b4dd-7d3a-4df7-b816-3897bcc8acae,                                 	   !- Space or SpaceType Name
,                                    !- Schedule Name
-24.817621026079,                                               !- Position X-coordinate
-6.41277281839904,                                               !- Position Y-coordinate
0.8125,                                               !- Position Z-coordinate
,                                                   !- Psi Rotation Around X-axis
,                                                   !- Theta Rotation Around Y-axis
,                                                   !- Phi Rotation Around Z-axis
,                                                   !- Fraction Replaceable
,                                                   !- Multiplier
;                                                   !- End-Use Subcategory

OS:Luminaire,
{ba803a57-9148-4528-b36a-079d58c2f642},                              !- Handle
Model Group:Control Zone 1:321646Ceiling Light - Linear Box:1'x4'(1 Lamp) - 120V:320744,                                            !- Name
a0824976-16fb-4680-9801-255dc602b29a,                         !- Luminaire Definition Name
4200b4dd-7d3a-4df7-b816-3897bcc8acae,                                 	   !- Space or SpaceType Name
,                                    !- Schedule Name
-24.317621026079,                                               !- Position X-coordinate
-14.412772818399,                                               !- Position Y-coordinate
0.8125,                                               !- Position Z-coordinate
,                                                   !- Psi Rotation Around X-axis
,                                                   !- Theta Rotation Around Y-axis
,                                                   !- Phi Rotation Around Z-axis
,                                                   !- Fraction Replaceable
,                                                   !- Multiplier
;                                                   !- End-Use Subcategory

OS:Luminaire,
{7805e1e4-4542-4273-936b-cf17806b0b94},                              !- Handle
Model Group:Control Zone 1:321646Ceiling Light - Linear Box:1'x4'(1 Lamp) - 120V:321008,                                            !- Name
a0824976-16fb-4680-9801-255dc602b29a,                         !- Luminaire Definition Name
4200b4dd-7d3a-4df7-b816-3897bcc8acae,                                 	   !- Space or SpaceType Name
,                                    !- Schedule Name
-35.817621026079,                                               !- Position X-coordinate
-14.412772818399,                                               !- Position Y-coordinate
0.8125,                                               !- Position Z-coordinate
,                                                   !- Psi Rotation Around X-axis
,                                                   !- Theta Rotation Around Y-axis
,                                                   !- Phi Rotation Around Z-axis
,                                                   !- Fraction Replaceable
,                                                   !- Multiplier
;                                                   !- End-Use Subcategory

OS:Luminaire,
{59e15441-2b5d-4310-b953-d28a25cc0760},                              !- Handle
Model Group:Control Zone 2:321684Ceiling Light - Linear Box:1'x4'(1 Lamp) - 120V:319352,                                            !- Name
a0824976-16fb-4680-9801-255dc602b29a,                         !- Luminaire Definition Name
4200b4dd-7d3a-4df7-b816-3897bcc8acae,                                 	   !- Space or SpaceType Name
,                                    !- Schedule Name
13.1823789739209,                                               !- Position X-coordinate
32.5872271816008,                                               !- Position Y-coordinate
0.8125,                                               !- Position Z-coordinate
,                                                   !- Psi Rotation Around X-axis
,                                                   !- Theta Rotation Around Y-axis
,                                                   !- Phi Rotation Around Z-axis
,                                                   !- Fraction Replaceable
,                                                   !- Multiplier
;                                                   !- End-Use Subcategory

OS:Luminaire,
{c5213fa7-1608-4a8b-a272-3215af06df1f},                              !- Handle
Model Group:Control Zone 2:321684Ceiling Light - Linear Box:1'x4'(1 Lamp) - 120V:319844,                                            !- Name
a0824976-16fb-4680-9801-255dc602b29a,                         !- Luminaire Definition Name
4200b4dd-7d3a-4df7-b816-3897bcc8acae,                                 	   !- Space or SpaceType Name
,                                    !- Schedule Name
-25.3176210260789,                                               !- Position X-coordinate
30.587227181601,                                               !- Position Y-coordinate
0.8125,                                               !- Position Z-coordinate
,                                                   !- Psi Rotation Around X-axis
,                                                   !- Theta Rotation Around Y-axis
,                                                   !- Phi Rotation Around Z-axis
,                                                   !- Fraction Replaceable
,                                                   !- Multiplier
;                                                   !- End-Use Subcategory

OS:Luminaire,
{922edc57-441d-45a8-815f-080afde8dc97},                              !- Handle
Model Group:Control Zone 1:321646Ceiling Light - Linear Box:1'x4'(1 Lamp) - 120V:320204,                                            !- Name
a0824976-16fb-4680-9801-255dc602b29a,                         !- Luminaire Definition Name
4200b4dd-7d3a-4df7-b816-3897bcc8acae,                                 	   !- Space or SpaceType Name
,                                    !- Schedule Name
-36.317621026079,                                               !- Position X-coordinate
-6.412772818399,                                               !- Position Y-coordinate
0.8125,                                               !- Position Z-coordinate
,                                                   !- Psi Rotation Around X-axis
,                                                   !- Theta Rotation Around Y-axis
,                                                   !- Phi Rotation Around Z-axis
,                                                   !- Fraction Replaceable
,                                                   !- Multiplier
;                                                   !- End-Use Subcategory

OS:Luminaire,
{b79c874f-1a12-4d7d-9174-23e1a83dcacd},                              !- Handle
Model Group:Control Zone 2:321684Ceiling Light - Linear Box:1'x4'(1 Lamp) - 120V:319283,                                            !- Name
a0824976-16fb-4680-9801-255dc602b29a,                         !- Luminaire Definition Name
4200b4dd-7d3a-4df7-b816-3897bcc8acae,                                 	   !- Space or SpaceType Name
,                                    !- Schedule Name
-3.31762102607911,                                               !- Position X-coordinate
39.5872271816009,                                               !- Position Y-coordinate
0.8125,                                               !- Position Z-coordinate
,                                                   !- Psi Rotation Around X-axis
,                                                   !- Theta Rotation Around Y-axis
,                                                   !- Phi Rotation Around Z-axis
,                                                   !- Fraction Replaceable
,                                                   !- Multiplier
;                                                   !- End-Use Subcategory

OS:Luminaire:Definition,
{a0824976-16fb-4680-9801-255dc602b29a},                              !- Handle
1'x4'(1 Lamp) - 120V,                                            !- Name
,                                                   !- IES File Path
,                                 	               !- Lighting Power
,                                                   !- Fraction Radiant
,                                                   !- Fraction Visible
,                                                   !- Return Air Fraction
,                                                   !- Return Air Fraction Calculated from Plenum Temperature
,                                                   !- Return Air Fraction Function of Plenum Temperature Coefficient 1
;                                                   !- Return Air Fraction Function of Plenum Temperature Coefficient 2

