OS:Version,
{5939721a-0f72-4cc0-a4f2-c07fb67b2468},  !- Handle
  1.3.0;                         !- Version Identifier

OS:Space,
{50dd178d-e8e9-4121-befd-d9a37fdee068},           !- Handle
sp-1-Space,                  !- Name
,                   !- Space Type Name
  ,     !- Default Construction Set Name
,     !- Default Schedule Set Name
,   !- Direction of Relative North {deg}
,                    !- X Origin {m}
,                    !- Y Origin {m}
,                    !- Z Origin {m}
,          !- Building Story Name
;            !- Thermal Zone Name

OS:Surface,
  {5f3c7766-23ff-4a87-8d0f-607acf4aa7a2},                           !- Handle
  su-1,                                !- Name
  Floor,                                   !- Surface Type
  {},               !- Construction Name
  sp-1-Space,                    !- Space Name
  Ground,                   !- Outside Boundary Condition
  ,             !- Outside Boundary Condition Object
  NoSun,                                !- Sun Exposure
  NoWind,                               !- Wind Exposure
  ,                         !- View Factor to Ground
  ,                                !- Number of Vertices
-6.753585407182624,7.0164674547644825,0.0,  !- X,Y,Z Vertex 1 {m}
  -6.159616176413395,-0.7051325452355346,0.0,  !- X,Y,Z Vertex 2 {m}
  -13.80441587968461,-0.7051325452355411,0.0,  !- X,Y,Z Vertex 3 {m}
  -14.398385110453843,7.0164674547645065,0.0;  !- X,Y,Z Vertex 4 {m}
  
OS:Surface,
  {a3966449-d7f6-4753-bc94-ef44927d3111},                           !- Handle
  su-2,                                !- Name
  Wall,                                   !- Surface Type
  {17cae7c7-c169-4032-877c-6935365bb2ef},               !- Construction Name
  sp-1-Space,                    !- Space Name
  Surface,                   !- Outside Boundary Condition
  su-11,             !- Outside Boundary Condition Object
  NoSun,                                !- Sun Exposure
  NoWind,                               !- Wind Exposure
  ,                         !- View Factor to Ground
  ,                                !- Number of Vertices
-6.159616176413408,-0.7051325452355475,0.0,  !- X,Y,Z Vertex 1 {m}
  -6.753585407182624,7.0164674547644825,0.0,  !- X,Y,Z Vertex 2 {m}
  -6.753585407182624,7.0164674547644825,3.048,  !- X,Y,Z Vertex 3 {m}
  -6.159616176413408,-0.7051325452355475,3.048;  !- X,Y,Z Vertex 4 {m}
  
OS:SubSurface,
  {4db410eb-3fcd-4e7b-8c8f-7c649bac4929},                              !- Handle
  sub-3,                     !- Name
  Door,                     !- Surface Type
  ,                         !- Construction Name
  su-2,                  !- Surface Name
  ,                         !- Outside Boundary Condition Object
  ,                         !- View Factor to Ground
  ,                         !- Shading Control Name
  ,                         !- Frame and Divider Name
  ,                         !- Multiplier
  ,                         !- Number of Vertices
  -6.465918137412904,3.2767929477580915,0.0,  !- X,Y,Z Vertex 1 {m}
  -6.547737962423147,4.340450672891168,0.0,  !- X,Y,Z Vertex 2 {m}
  -6.547737962423147,4.340450672891168,2.2098,  !- X,Y,Z Vertex 3 {m}
  -6.465918137412904,3.2767929477580915,2.2098;  !- X,Y,Z Vertex 4 {m}
  
OS:Surface,
  {27d52e18-0226-4f93-98fb-78b5918d162d},                           !- Handle
  su-3,                                !- Name
  Wall,                                   !- Surface Type
  {17cae7c7-c169-4032-877c-6935365bb2ef},               !- Construction Name
  sp-1-Space,                    !- Space Name
  Outdoors,                   !- Outside Boundary Condition
  ,             !- Outside Boundary Condition Object
  SunExposed,                                !- Sun Exposure
  WindExposed,                               !- Wind Exposure
  ,                         !- View Factor to Ground
  ,                                !- Number of Vertices
-6.753585407182624,7.0164674547644825,0.0,  !- X,Y,Z Vertex 1 {m}
  -14.398385110453843,7.016467454764513,0.0,  !- X,Y,Z Vertex 2 {m}
  -14.398385110453843,7.016467454764513,3.048,  !- X,Y,Z Vertex 3 {m}
  -6.753585407182624,7.0164674547644825,3.048;  !- X,Y,Z Vertex 4 {m}
  
OS:SubSurface,
  {6c53cd4e-86cc-4e06-bcd0-bb21c99f1199},                              !- Handle
  sub-1,                     !- Name
  FixedWindow,                     !- Surface Type
  2fdc3f7c-ca3a-48e5-8fcc-d3c66b0a97e4,                         !- Construction Name
  su-3,                  !- Surface Name
  ,                         !- Outside Boundary Condition Object
  ,                         !- View Factor to Ground
  ,                         !- Shading Control Name
  ,                         !- Frame and Divider Name
  ,                         !- Multiplier
  ,                         !- Number of Vertices
  -10.393300643433626,7.0164674547644825,0.9144000000000001,  !- X,Y,Z Vertex 1 {m}
  -11.307700643433625,7.0164674547644825,0.9144000000000001,  !- X,Y,Z Vertex 2 {m}
  -11.307700643433625,7.0164674547644825,2.1336,  !- X,Y,Z Vertex 3 {m}
  -10.393300643433626,7.0164674547644825,2.1336;  !- X,Y,Z Vertex 4 {m}
  
OS:Surface,
  {37f1017a-ec9d-4dd3-aabd-1eab4c7bdd5f},                           !- Handle
  su-4,                                !- Name
  Wall,                                   !- Surface Type
  {17cae7c7-c169-4032-877c-6935365bb2ef},               !- Construction Name
  sp-1-Space,                    !- Space Name
  Outdoors,                   !- Outside Boundary Condition
  ,             !- Outside Boundary Condition Object
  SunExposed,                                !- Sun Exposure
  WindExposed,                               !- Wind Exposure
  ,                         !- View Factor to Ground
  ,                                !- Number of Vertices
-13.804415879684594,-0.7051325452355475,0.0,  !- X,Y,Z Vertex 1 {m}
  -6.159616176413408,-0.7051325452355475,0.0,  !- X,Y,Z Vertex 2 {m}
  -6.159616176413408,-0.7051325452355475,3.048,  !- X,Y,Z Vertex 3 {m}
  -13.804415879684594,-0.7051325452355475,3.048;  !- X,Y,Z Vertex 4 {m}
  
OS:SubSurface,
  {7ee8a819-112d-495a-86a1-69c851a69300},                              !- Handle
  sub-2,                     !- Name
  FixedWindow,                     !- Surface Type
  2fdc3f7c-ca3a-48e5-8fcc-d3c66b0a97e4,                         !- Construction Name
  su-4,                  !- Surface Name
  ,                         !- Outside Boundary Condition Object
  ,                         !- View Factor to Ground
  ,                         !- Shading Control Name
  ,                         !- Frame and Divider Name
  ,                         !- Multiplier
  ,                         !- Number of Vertices
  -10.545700643433625,-0.7051325452355475,0.9144000000000001,  !- X,Y,Z Vertex 1 {m}
  -9.631300643433626,-0.7051325452355475,0.9144000000000001,  !- X,Y,Z Vertex 2 {m}
  -9.631300643433626,-0.7051325452355475,2.1336,  !- X,Y,Z Vertex 3 {m}
  -10.545700643433625,-0.7051325452355475,2.1336;  !- X,Y,Z Vertex 4 {m}
  
OS:Surface,
  {b3de7ee7-9656-46b0-8ee5-1440e269e74c},                           !- Handle
  su-5,                                !- Name
  RoofCeiling,                                   !- Surface Type
  {},               !- Construction Name
  sp-1-Space,                    !- Space Name
  Outdoors,                   !- Outside Boundary Condition
  ,             !- Outside Boundary Condition Object
  SunExposed,                                !- Sun Exposure
  WindExposed,                               !- Wind Exposure
  ,                         !- View Factor to Ground
  ,                                !- Number of Vertices
-6.753585407182624,7.0164674547644825,3.048,  !- X,Y,Z Vertex 1 {m}
  -14.398385110453813,7.0164674547644825,3.048,  !- X,Y,Z Vertex 2 {m}
  -13.804415879684568,-0.7051325452355682,3.048,  !- X,Y,Z Vertex 3 {m}
  -6.159616176413365,-0.7051325452355379,3.048;  !- X,Y,Z Vertex 4 {m}
  
OS:Surface,
  {cc02e913-c76e-4db5-a016-a2c5a7b037cd},                           !- Handle
  su-6,                                !- Name
  Wall,                                   !- Surface Type
  {17cae7c7-c169-4032-877c-6935365bb2ef},               !- Construction Name
  sp-1-Space,                    !- Space Name
  Outdoors,                   !- Outside Boundary Condition
  ,             !- Outside Boundary Condition Object
  SunExposed,                                !- Sun Exposure
  WindExposed,                               !- Wind Exposure
  ,                         !- View Factor to Ground
  ,                                !- Number of Vertices
-14.398385110453843,7.016467454764513,0.0,  !- X,Y,Z Vertex 1 {m}
  -13.804415879684594,-0.7051325452355506,0.0,  !- X,Y,Z Vertex 2 {m}
  -13.804415879684594,-0.7051325452355506,3.048,  !- X,Y,Z Vertex 3 {m}
  -14.398385110453843,7.016467454764513,3.048;  !- X,Y,Z Vertex 4 {m}
  
OS:SubSurface,
  {688f3c31-5360-42c1-85f4-86eaf0edd824},                              !- Handle
  sub-4,                     !- Name
  Door,                     !- Surface Type
  ,                         !- Construction Name
  su-6,                  !- Surface Name
  ,                         !- Outside Boundary Condition Object
  ,                         !- View Factor to Ground
  ,                         !- Shading Control Name
  ,                         !- Frame and Divider Name
  ,                         !- Multiplier
  ,                         !- Number of Vertices
  -14.189867197250656,4.3057345831232325,0.0,  !- X,Y,Z Vertex 1 {m}
  -14.108047372240412,3.2420768579901256,0.0,  !- X,Y,Z Vertex 2 {m}
  -14.108047372240412,3.2420768579901256,2.2098,  !- X,Y,Z Vertex 3 {m}
  -14.189867197250656,4.3057345831232325,2.2098;  !- X,Y,Z Vertex 4 {m}
  
OS:Space,
{c26bdc5f-06de-4af8-bff0-700e203946a4},           !- Handle
sp-2-Space,                  !- Name
,                   !- Space Type Name
  ,     !- Default Construction Set Name
,     !- Default Schedule Set Name
,   !- Direction of Relative North {deg}
,                    !- X Origin {m}
,                    !- Y Origin {m}
,                    !- Z Origin {m}
,          !- Building Story Name
;            !- Thermal Zone Name

OS:Surface,
  {e1a97e8a-ea84-4117-8d82-609c98ec1f62},                           !- Handle
  su-7,                                !- Name
  Wall,                                   !- Surface Type
  {17cae7c7-c169-4032-877c-6935365bb2ef},               !- Construction Name
  sp-2-Space,                    !- Space Name
  Outdoors,                   !- Outside Boundary Condition
  ,             !- Outside Boundary Condition Object
  SunExposed,                                !- Sun Exposure
  WindExposed,                               !- Wind Exposure
  ,                         !- View Factor to Ground
  ,                                !- Number of Vertices
1.0874993565663795,-0.7051325452355475,0.0,  !- X,Y,Z Vertex 1 {m}
  1.0874993565663795,7.016467454764452,0.0,  !- X,Y,Z Vertex 2 {m}
  1.0874993565663795,7.016467454764452,3.048,  !- X,Y,Z Vertex 3 {m}
  1.0874993565663795,-0.7051325452355475,3.048;  !- X,Y,Z Vertex 4 {m}
  
OS:Surface,
  {cf49e152-d5c8-4352-8fca-ee3231cdfe2a},                           !- Handle
  su-8,                                !- Name
  Wall,                                   !- Surface Type
  {17cae7c7-c169-4032-877c-6935365bb2ef},               !- Construction Name
  sp-2-Space,                    !- Space Name
  Outdoors,                   !- Outside Boundary Condition
  ,             !- Outside Boundary Condition Object
  SunExposed,                                !- Sun Exposure
  WindExposed,                               !- Wind Exposure
  ,                         !- View Factor to Ground
  ,                                !- Number of Vertices
1.0874993565663795,7.016467454764452,0.0,  !- X,Y,Z Vertex 1 {m}
  -6.549785110453842,7.0164674547644825,0.0,  !- X,Y,Z Vertex 2 {m}
  -6.549785110453842,7.0164674547644825,3.048,  !- X,Y,Z Vertex 3 {m}
  1.0874993565663795,7.016467454764452,3.048;  !- X,Y,Z Vertex 4 {m}
  
OS:SubSurface,
  {14b1646d-d437-4871-86c1-9e057a8d7fac},                              !- Handle
  sub-7,                     !- Name
  Door,                     !- Surface Type
  ,                         !- Construction Name
  su-8,                  !- Surface Name
  ,                         !- Outside Boundary Condition Object
  ,                         !- View Factor to Ground
  ,                         !- Shading Control Name
  ,                         !- Frame and Divider Name
  ,                         !- Multiplier
  ,                         !- Number of Vertices
  -1.4779006434336215,7.016467454764452,0.0,  !- X,Y,Z Vertex 1 {m}
  -2.5447006434336212,7.016467454764452,0.0,  !- X,Y,Z Vertex 2 {m}
  -2.5447006434336212,7.016467454764452,2.2098,  !- X,Y,Z Vertex 3 {m}
  -1.4779006434336215,7.016467454764452,2.2098;  !- X,Y,Z Vertex 4 {m}
  
OS:Surface,
  {2019f2e3-4f13-427e-8815-8c2ffd4f28ab},                           !- Handle
  su-9,                                !- Name
  Wall,                                   !- Surface Type
  {17cae7c7-c169-4032-877c-6935365bb2ef},               !- Construction Name
  sp-2-Space,                    !- Space Name
  Outdoors,                   !- Outside Boundary Condition
  ,             !- Outside Boundary Condition Object
  SunExposed,                                !- Sun Exposure
  WindExposed,                               !- Wind Exposure
  ,                         !- View Factor to Ground
  ,                                !- Number of Vertices
-5.955815879684596,-0.7051325452355475,0.0,  !- X,Y,Z Vertex 1 {m}
  1.0874993565663795,-0.7051325452355475,0.0,  !- X,Y,Z Vertex 2 {m}
  1.0874993565663795,-0.7051325452355475,3.048,  !- X,Y,Z Vertex 3 {m}
  -5.955815879684596,-0.7051325452355475,3.048;  !- X,Y,Z Vertex 4 {m}
  
OS:SubSurface,
  {cde0212c-f811-4694-b2bc-fa79ccb4508a},                              !- Handle
  sub-5,                     !- Name
  FixedWindow,                     !- Surface Type
  2fdc3f7c-ca3a-48e5-8fcc-d3c66b0a97e4,                         !- Construction Name
  su-9,                  !- Surface Name
  ,                         !- Outside Boundary Condition Object
  ,                         !- View Factor to Ground
  ,                         !- Shading Control Name
  ,                         !- Frame and Divider Name
  ,                         !- Multiplier
  ,                         !- Number of Vertices
  -2.620900643433628,-0.7051325452355475,0.9144000000000001,  !- X,Y,Z Vertex 1 {m}
  -1.7065006434336216,-0.7051325452355475,0.9144000000000001,  !- X,Y,Z Vertex 2 {m}
  -1.7065006434336216,-0.7051325452355475,2.1336,  !- X,Y,Z Vertex 3 {m}
  -2.620900643433628,-0.7051325452355475,2.1336;  !- X,Y,Z Vertex 4 {m}
  
OS:Surface,
  {563e3b07-1be7-4c99-8baf-da9b00f91ba4},                           !- Handle
  su-10,                                !- Name
  RoofCeiling,                                   !- Surface Type
  {},               !- Construction Name
  sp-2-Space,                    !- Space Name
  Outdoors,                   !- Outside Boundary Condition
  ,             !- Outside Boundary Condition Object
  SunExposed,                                !- Sun Exposure
  WindExposed,                               !- Wind Exposure
  ,                         !- View Factor to Ground
  ,                                !- Number of Vertices
1.0874993565663795,7.016467454764452,3.048,  !- X,Y,Z Vertex 1 {m}
  -6.549785110453848,7.016467454764452,3.048,  !- X,Y,Z Vertex 2 {m}
  -5.955815879684571,-0.7051325452355682,3.048,  !- X,Y,Z Vertex 3 {m}
  1.0874993565663795,-0.7051325452355379,3.048;  !- X,Y,Z Vertex 4 {m}
  
OS:Surface,
  {98dbc055-4569-4bfb-8db7-b4e79b4e021e},                           !- Handle
  su-11,                                !- Name
  Wall,                                   !- Surface Type
  {17cae7c7-c169-4032-877c-6935365bb2ef},               !- Construction Name
  sp-2-Space,                    !- Space Name
  Surface,                   !- Outside Boundary Condition
  su-2,             !- Outside Boundary Condition Object
  NoSun,                                !- Sun Exposure
  NoWind,                               !- Wind Exposure
  ,                         !- View Factor to Ground
  ,                                !- Number of Vertices
-6.549785110453842,7.0164674547644825,0.0,  !- X,Y,Z Vertex 1 {m}
  -5.955815879684596,-0.7051325452355475,0.0,  !- X,Y,Z Vertex 2 {m}
  -5.955815879684596,-0.7051325452355475,3.048,  !- X,Y,Z Vertex 3 {m}
  -6.549785110453842,7.0164674547644825,3.048;  !- X,Y,Z Vertex 4 {m}
  
OS:SubSurface,
  {fdb468e2-f881-4832-bea6-327b09d2256b},                              !- Handle
  sub-6,                     !- Name
  Door,                     !- Surface Type
  ,                         !- Construction Name
  su-11,                  !- Surface Name
  ,                         !- Outside Boundary Condition Object
  ,                         !- View Factor to Ground
  ,                         !- Shading Control Name
  ,                         !- Frame and Divider Name
  ,                         !- Multiplier
  ,                         !- Number of Vertices
  -6.345136490969223,4.35603540146455,0.0,  !- X,Y,Z Vertex 1 {m}
  -6.263316665958978,3.2923776763314727,0.0,  !- X,Y,Z Vertex 2 {m}
  -6.263316665958978,3.2923776763314727,2.2098,  !- X,Y,Z Vertex 3 {m}
  -6.345136490969223,4.35603540146455,2.2098;  !- X,Y,Z Vertex 4 {m}
  
OS:Surface,
  {4702ae90-648a-4e87-bf2c-5c26718d7386},                           !- Handle
  su-12,                                !- Name
  Floor,                                   !- Surface Type
  {},               !- Construction Name
  sp-2-Space,                    !- Space Name
  Ground,                   !- Outside Boundary Condition
  ,             !- Outside Boundary Condition Object
  NoSun,                                !- Sun Exposure
  NoWind,                               !- Wind Exposure
  ,                         !- View Factor to Ground
  ,                                !- Number of Vertices
1.0874993565663795,7.016467454764452,0.0,  !- X,Y,Z Vertex 1 {m}
  1.0874993565663795,-0.7051325452355379,0.0,  !- X,Y,Z Vertex 2 {m}
  -5.955815879684601,-0.7051325452355379,0.0,  !- X,Y,Z Vertex 3 {m}
  -6.549785110453848,7.016467454764452,0.0;  !- X,Y,Z Vertex 4 {m}
  
OS:Space,
{6513aee6-f1b7-436a-9872-e275032dbc41},           !- Handle
sp-3-Space,                  !- Name
,                   !- Space Type Name
  ,     !- Default Construction Set Name
,     !- Default Schedule Set Name
,   !- Direction of Relative North {deg}
,                    !- X Origin {m}
,                    !- Y Origin {m}
,                    !- Z Origin {m}
,          !- Building Story Name
;            !- Thermal Zone Name

OS:Space,
{449305bc-e95f-43bf-95c8-ea6443633a1b},           !- Handle
sp-4-Space,                  !- Name
,                   !- Space Type Name
  ,     !- Default Construction Set Name
,     !- Default Schedule Set Name
,   !- Direction of Relative North {deg}
,                    !- X Origin {m}
,                    !- Y Origin {m}
,                    !- Z Origin {m}
,          !- Building Story Name
;            !- Thermal Zone Name

OS:Construction,
{17cae7c7-c169-4032-877c-6935365bb2ef},                              !- Handle
Basic Wall:Generic - 8",                                            !- Name
,                            !- Surface Rendering Name
{a1d3e3d3-8610-47c2-8802-3c678aca7aad};                   !- Layer 1

OS:Material,
{a1d3e3d3-8610-47c2-8802-3c678aca7aad},                              !- Handle
Default Wall,                                            !- Name
MediumRough,                                       !- Roughness
0.666666666666667,                                 	   !- Thickness
123.0,                                    !- Conductivity
123.0,                                         !- Density
123.0,                                    !- Specific Heat
,                                                   !- Thermal Absorptance
,                                                   !- Solar Absorptance
;                                                   !- Visible Absorptance

OS:WindowMaterial:SimpleGlazingSystem,
{bb7f7501-85f7-4eae-b454-aea255c67f8d},                              !- Handle
36" x 48"_Material,                                            !- Name
0.0,                                         !- U-Factor
0.0,                         !- Solar Heat Gain Coefficient
1.0;                              !- Visible Absorptance

OS:Construction,
{2fdc3f7c-ca3a-48e5-8fcc-d3c66b0a97e4},                              !- Handle
36" x 48",                                            !- Name
,                            !- Surface Rendering Name
{bb7f7501-85f7-4eae-b454-aea255c67f8d};                   !- Layer 1

