OS:Version,
{241e364f-9870-48b0-a5db-2c13d4521395},  !- Handle
  1.3.0;                         !- Version Identifier

OS:Space,
{7260d086-2821-4020-9f4d-c5af0e8c6abc},           !- Handle
sp-1-Space,                  !- Name
,                   !- Space Type Name
  ,     !- Default Construction Set Name
,     !- Default Schedule Set Name
,   !- Direction of Relative North {deg}
,                    !- X Origin {m}
,                    !- Y Origin {m}
,                    !- Z Origin {m}
,          !- Building Story Name
;            !- Thermal Zone Name

OS:Surface,
  {eeaf7074-7f70-478c-ba6c-a1ce283386ea},                           !- Handle
  su-1,                                !- Name
  Floor,                                   !- Surface Type
  {},               !- Construction Name
  sp-1-Space,                    !- Space Name
  Ground,                   !- Outside Boundary Condition
  ,             !- Outside Boundary Condition Object
  NoSun,                                !- Sun Exposure
  NoWind,                               !- Wind Exposure
  ,                         !- View Factor to Ground
  ,                                !- Number of Vertices
-6.753585407182624,7.0164674547644825,0.0,  !- X,Y,Z Vertex 1 {m}
  -6.159616176413395,-0.7051325452355346,0.0,  !- X,Y,Z Vertex 2 {m}
  -13.80441587968461,-0.7051325452355411,0.0,  !- X,Y,Z Vertex 3 {m}
  -14.398385110453843,7.0164674547645065,0.0;  !- X,Y,Z Vertex 4 {m}
  
OS:Surface,
  {512a6f9d-e17e-495e-9976-03e6346290de},                           !- Handle
  su-2,                                !- Name
  Wall,                                   !- Surface Type
  {2e098dc7-db0e-4db8-a2c7-de1cf69e5245},               !- Construction Name
  sp-1-Space,                    !- Space Name
  Surface,                   !- Outside Boundary Condition
  su-11,             !- Outside Boundary Condition Object
  NoSun,                                !- Sun Exposure
  NoWind,                               !- Wind Exposure
  ,                         !- View Factor to Ground
  ,                                !- Number of Vertices
-6.159616176413408,-0.7051325452355475,0.0,  !- X,Y,Z Vertex 1 {m}
  -6.753585407182624,7.0164674547644825,0.0,  !- X,Y,Z Vertex 2 {m}
  -6.753585407182624,7.0164674547644825,3.048,  !- X,Y,Z Vertex 3 {m}
  -6.159616176413408,-0.7051325452355475,3.048;  !- X,Y,Z Vertex 4 {m}
  
OS:SubSurface,
  {d25c417f-d320-4e9f-a7a7-aa1ff6932f91},                              !- Handle
  sub-2,                     !- Name
  Door,                     !- Surface Type
  ,                         !- Construction Name
  su-2,                  !- Surface Name
  ,                         !- Outside Boundary Condition Object
  ,                         !- View Factor to Ground
  ,                         !- Shading Control Name
  ,                         !- Frame and Divider Name
  ,                         !- Multiplier
  ,                         !- Number of Vertices
  -6.465918137412904,3.2767929477580915,0.0,  !- X,Y,Z Vertex 1 {m}
  -6.547737962423147,4.340450672891168,0.0,  !- X,Y,Z Vertex 2 {m}
  -6.547737962423147,4.340450672891168,2.2098,  !- X,Y,Z Vertex 3 {m}
  -6.465918137412904,3.2767929477580915,2.2098;  !- X,Y,Z Vertex 4 {m}
  
OS:Surface,
  {b0bffb18-18c7-44f6-abec-82a51e2fda7f},                           !- Handle
  su-3,                                !- Name
  Wall,                                   !- Surface Type
  {2e098dc7-db0e-4db8-a2c7-de1cf69e5245},               !- Construction Name
  sp-1-Space,                    !- Space Name
  Outdoors,                   !- Outside Boundary Condition
  ,             !- Outside Boundary Condition Object
  SunExposed,                                !- Sun Exposure
  WindExposed,                               !- Wind Exposure
  ,                         !- View Factor to Ground
  ,                                !- Number of Vertices
-6.753585407182624,7.0164674547644825,0.0,  !- X,Y,Z Vertex 1 {m}
  -14.398385110453843,7.016467454764513,0.0,  !- X,Y,Z Vertex 2 {m}
  -14.398385110453843,7.016467454764513,3.048,  !- X,Y,Z Vertex 3 {m}
  -6.753585407182624,7.0164674547644825,3.048;  !- X,Y,Z Vertex 4 {m}
  
OS:SubSurface,
  {f41e97d5-6542-4275-b412-a0d0c436d083},                              !- Handle
  sub-3,                     !- Name
  FixedWindow,                     !- Surface Type
  ddd1a1ae-8aad-4a24-bea0-84910183021c,                         !- Construction Name
  su-3,                  !- Surface Name
  ,                         !- Outside Boundary Condition Object
  ,                         !- View Factor to Ground
  ,                         !- Shading Control Name
  ,                         !- Frame and Divider Name
  ,                         !- Multiplier
  ,                         !- Number of Vertices
  -10.393300643433626,7.0164674547644825,0.9144000000000001,  !- X,Y,Z Vertex 1 {m}
  -11.307700643433625,7.0164674547644825,0.9144000000000001,  !- X,Y,Z Vertex 2 {m}
  -11.307700643433625,7.0164674547644825,2.1336,  !- X,Y,Z Vertex 3 {m}
  -10.393300643433626,7.0164674547644825,2.1336;  !- X,Y,Z Vertex 4 {m}
  
OS:Surface,
  {d35edc9f-7c39-41af-878e-b4a3317bd2c3},                           !- Handle
  su-4,                                !- Name
  Wall,                                   !- Surface Type
  {2e098dc7-db0e-4db8-a2c7-de1cf69e5245},               !- Construction Name
  sp-1-Space,                    !- Space Name
  Outdoors,                   !- Outside Boundary Condition
  ,             !- Outside Boundary Condition Object
  SunExposed,                                !- Sun Exposure
  WindExposed,                               !- Wind Exposure
  ,                         !- View Factor to Ground
  ,                                !- Number of Vertices
-13.804415879684594,-0.7051325452355475,0.0,  !- X,Y,Z Vertex 1 {m}
  -6.159616176413408,-0.7051325452355475,0.0,  !- X,Y,Z Vertex 2 {m}
  -6.159616176413408,-0.7051325452355475,3.048,  !- X,Y,Z Vertex 3 {m}
  -13.804415879684594,-0.7051325452355475,3.048;  !- X,Y,Z Vertex 4 {m}
  
OS:SubSurface,
  {757dcc51-1de5-468c-a31a-1613d6f95230},                              !- Handle
  sub-4,                     !- Name
  FixedWindow,                     !- Surface Type
  ddd1a1ae-8aad-4a24-bea0-84910183021c,                         !- Construction Name
  su-4,                  !- Surface Name
  ,                         !- Outside Boundary Condition Object
  ,                         !- View Factor to Ground
  ,                         !- Shading Control Name
  ,                         !- Frame and Divider Name
  ,                         !- Multiplier
  ,                         !- Number of Vertices
  -10.545700643433625,-0.7051325452355475,0.9144000000000001,  !- X,Y,Z Vertex 1 {m}
  -9.631300643433626,-0.7051325452355475,0.9144000000000001,  !- X,Y,Z Vertex 2 {m}
  -9.631300643433626,-0.7051325452355475,2.1336,  !- X,Y,Z Vertex 3 {m}
  -10.545700643433625,-0.7051325452355475,2.1336;  !- X,Y,Z Vertex 4 {m}
  
OS:Surface,
  {164337fe-76ee-4978-9199-df565f6e5f55},                           !- Handle
  su-5,                                !- Name
  RoofCeiling,                                   !- Surface Type
  {},               !- Construction Name
  sp-1-Space,                    !- Space Name
  Outdoors,                   !- Outside Boundary Condition
  ,             !- Outside Boundary Condition Object
  SunExposed,                                !- Sun Exposure
  WindExposed,                               !- Wind Exposure
  ,                         !- View Factor to Ground
  ,                                !- Number of Vertices
-6.753585407182624,7.0164674547644825,3.048,  !- X,Y,Z Vertex 1 {m}
  -14.398385110453813,7.0164674547644825,3.048,  !- X,Y,Z Vertex 2 {m}
  -13.804415879684568,-0.7051325452355682,3.048,  !- X,Y,Z Vertex 3 {m}
  -6.159616176413365,-0.7051325452355379,3.048;  !- X,Y,Z Vertex 4 {m}
  
OS:Surface,
  {04ef8174-1f8c-45b0-a57f-d69d73203c0d},                           !- Handle
  su-6,                                !- Name
  Wall,                                   !- Surface Type
  {2e098dc7-db0e-4db8-a2c7-de1cf69e5245},               !- Construction Name
  sp-1-Space,                    !- Space Name
  Outdoors,                   !- Outside Boundary Condition
  ,             !- Outside Boundary Condition Object
  SunExposed,                                !- Sun Exposure
  WindExposed,                               !- Wind Exposure
  ,                         !- View Factor to Ground
  ,                                !- Number of Vertices
-14.398385110453843,7.016467454764513,0.0,  !- X,Y,Z Vertex 1 {m}
  -13.804415879684594,-0.7051325452355506,0.0,  !- X,Y,Z Vertex 2 {m}
  -13.804415879684594,-0.7051325452355506,3.048,  !- X,Y,Z Vertex 3 {m}
  -14.398385110453843,7.016467454764513,3.048;  !- X,Y,Z Vertex 4 {m}
  
OS:SubSurface,
  {10948b5f-8d4b-4c6a-aa4b-1c336e8eeefa},                              !- Handle
  sub-1,                     !- Name
  Door,                     !- Surface Type
  ,                         !- Construction Name
  su-6,                  !- Surface Name
  ,                         !- Outside Boundary Condition Object
  ,                         !- View Factor to Ground
  ,                         !- Shading Control Name
  ,                         !- Frame and Divider Name
  ,                         !- Multiplier
  ,                         !- Number of Vertices
  -14.189867197250656,4.3057345831232325,0.0,  !- X,Y,Z Vertex 1 {m}
  -14.108047372240412,3.2420768579901256,0.0,  !- X,Y,Z Vertex 2 {m}
  -14.108047372240412,3.2420768579901256,2.2098,  !- X,Y,Z Vertex 3 {m}
  -14.189867197250656,4.3057345831232325,2.2098;  !- X,Y,Z Vertex 4 {m}
  
OS:Space,
{0ea0aded-8ce6-4219-b5b1-4ea63cb1559c},           !- Handle
sp-2-Space,                  !- Name
,                   !- Space Type Name
  ,     !- Default Construction Set Name
,     !- Default Schedule Set Name
,   !- Direction of Relative North {deg}
,                    !- X Origin {m}
,                    !- Y Origin {m}
,                    !- Z Origin {m}
,          !- Building Story Name
;            !- Thermal Zone Name

OS:Surface,
  {ac651939-1228-4c0b-bab0-b93958b83547},                           !- Handle
  su-7,                                !- Name
  Wall,                                   !- Surface Type
  {2e098dc7-db0e-4db8-a2c7-de1cf69e5245},               !- Construction Name
  sp-2-Space,                    !- Space Name
  Outdoors,                   !- Outside Boundary Condition
  ,             !- Outside Boundary Condition Object
  SunExposed,                                !- Sun Exposure
  WindExposed,                               !- Wind Exposure
  ,                         !- View Factor to Ground
  ,                                !- Number of Vertices
1.0874993565663795,-0.7051325452355475,0.0,  !- X,Y,Z Vertex 1 {m}
  1.0874993565663795,7.016467454764452,0.0,  !- X,Y,Z Vertex 2 {m}
  1.0874993565663795,7.016467454764452,3.048,  !- X,Y,Z Vertex 3 {m}
  1.0874993565663795,-0.7051325452355475,3.048;  !- X,Y,Z Vertex 4 {m}
  
OS:Surface,
  {666d4d92-ee3b-4824-82b6-7b5ce5c19d68},                           !- Handle
  su-8,                                !- Name
  Wall,                                   !- Surface Type
  {2e098dc7-db0e-4db8-a2c7-de1cf69e5245},               !- Construction Name
  sp-2-Space,                    !- Space Name
  Outdoors,                   !- Outside Boundary Condition
  ,             !- Outside Boundary Condition Object
  SunExposed,                                !- Sun Exposure
  WindExposed,                               !- Wind Exposure
  ,                         !- View Factor to Ground
  ,                                !- Number of Vertices
1.0874993565663795,7.016467454764452,0.0,  !- X,Y,Z Vertex 1 {m}
  -6.549785110453842,7.0164674547644825,0.0,  !- X,Y,Z Vertex 2 {m}
  -6.549785110453842,7.0164674547644825,3.048,  !- X,Y,Z Vertex 3 {m}
  1.0874993565663795,7.016467454764452,3.048;  !- X,Y,Z Vertex 4 {m}
  
OS:SubSurface,
  {812ca87c-962d-46dd-a4c3-3fdabb20e5dd},                              !- Handle
  sub-6,                     !- Name
  Door,                     !- Surface Type
  ,                         !- Construction Name
  su-8,                  !- Surface Name
  ,                         !- Outside Boundary Condition Object
  ,                         !- View Factor to Ground
  ,                         !- Shading Control Name
  ,                         !- Frame and Divider Name
  ,                         !- Multiplier
  ,                         !- Number of Vertices
  -1.4779006434336215,7.016467454764452,0.0,  !- X,Y,Z Vertex 1 {m}
  -2.5447006434336212,7.016467454764452,0.0,  !- X,Y,Z Vertex 2 {m}
  -2.5447006434336212,7.016467454764452,2.2098,  !- X,Y,Z Vertex 3 {m}
  -1.4779006434336215,7.016467454764452,2.2098;  !- X,Y,Z Vertex 4 {m}
  
OS:Surface,
  {7508ac85-1f95-4645-9cdd-ab2b3d809e55},                           !- Handle
  su-9,                                !- Name
  Wall,                                   !- Surface Type
  {2e098dc7-db0e-4db8-a2c7-de1cf69e5245},               !- Construction Name
  sp-2-Space,                    !- Space Name
  Outdoors,                   !- Outside Boundary Condition
  ,             !- Outside Boundary Condition Object
  SunExposed,                                !- Sun Exposure
  WindExposed,                               !- Wind Exposure
  ,                         !- View Factor to Ground
  ,                                !- Number of Vertices
-5.955815879684596,-0.7051325452355475,0.0,  !- X,Y,Z Vertex 1 {m}
  1.0874993565663795,-0.7051325452355475,0.0,  !- X,Y,Z Vertex 2 {m}
  1.0874993565663795,-0.7051325452355475,3.048,  !- X,Y,Z Vertex 3 {m}
  -5.955815879684596,-0.7051325452355475,3.048;  !- X,Y,Z Vertex 4 {m}
  
OS:SubSurface,
  {80a90537-e32e-4d1b-acfe-298c6c4a0620},                              !- Handle
  sub-7,                     !- Name
  FixedWindow,                     !- Surface Type
  ddd1a1ae-8aad-4a24-bea0-84910183021c,                         !- Construction Name
  su-9,                  !- Surface Name
  ,                         !- Outside Boundary Condition Object
  ,                         !- View Factor to Ground
  ,                         !- Shading Control Name
  ,                         !- Frame and Divider Name
  ,                         !- Multiplier
  ,                         !- Number of Vertices
  -2.620900643433628,-0.7051325452355475,0.9144000000000001,  !- X,Y,Z Vertex 1 {m}
  -1.7065006434336216,-0.7051325452355475,0.9144000000000001,  !- X,Y,Z Vertex 2 {m}
  -1.7065006434336216,-0.7051325452355475,2.1336,  !- X,Y,Z Vertex 3 {m}
  -2.620900643433628,-0.7051325452355475,2.1336;  !- X,Y,Z Vertex 4 {m}
  
OS:Surface,
  {ec721bf4-709d-4596-ba8b-1e9c04ae5236},                           !- Handle
  su-10,                                !- Name
  RoofCeiling,                                   !- Surface Type
  {},               !- Construction Name
  sp-2-Space,                    !- Space Name
  Outdoors,                   !- Outside Boundary Condition
  ,             !- Outside Boundary Condition Object
  SunExposed,                                !- Sun Exposure
  WindExposed,                               !- Wind Exposure
  ,                         !- View Factor to Ground
  ,                                !- Number of Vertices
1.0874993565663795,7.016467454764452,3.048,  !- X,Y,Z Vertex 1 {m}
  -6.549785110453848,7.016467454764452,3.048,  !- X,Y,Z Vertex 2 {m}
  -5.955815879684571,-0.7051325452355682,3.048,  !- X,Y,Z Vertex 3 {m}
  1.0874993565663795,-0.7051325452355379,3.048;  !- X,Y,Z Vertex 4 {m}
  
OS:Surface,
  {950c18de-5d95-4fcb-912b-edd91200a4c1},                           !- Handle
  su-11,                                !- Name
  Wall,                                   !- Surface Type
  {2e098dc7-db0e-4db8-a2c7-de1cf69e5245},               !- Construction Name
  sp-2-Space,                    !- Space Name
  Surface,                   !- Outside Boundary Condition
  su-2,             !- Outside Boundary Condition Object
  NoSun,                                !- Sun Exposure
  NoWind,                               !- Wind Exposure
  ,                         !- View Factor to Ground
  ,                                !- Number of Vertices
-6.549785110453842,7.0164674547644825,0.0,  !- X,Y,Z Vertex 1 {m}
  -5.955815879684596,-0.7051325452355475,0.0,  !- X,Y,Z Vertex 2 {m}
  -5.955815879684596,-0.7051325452355475,3.048,  !- X,Y,Z Vertex 3 {m}
  -6.549785110453842,7.0164674547644825,3.048;  !- X,Y,Z Vertex 4 {m}
  
OS:SubSurface,
  {9f36b573-19c1-4b62-89a1-fc3cd4beeb1b},                              !- Handle
  sub-5,                     !- Name
  Door,                     !- Surface Type
  ,                         !- Construction Name
  su-11,                  !- Surface Name
  ,                         !- Outside Boundary Condition Object
  ,                         !- View Factor to Ground
  ,                         !- Shading Control Name
  ,                         !- Frame and Divider Name
  ,                         !- Multiplier
  ,                         !- Number of Vertices
  -6.345136490969223,4.35603540146455,0.0,  !- X,Y,Z Vertex 1 {m}
  -6.263316665958978,3.2923776763314727,0.0,  !- X,Y,Z Vertex 2 {m}
  -6.263316665958978,3.2923776763314727,2.2098,  !- X,Y,Z Vertex 3 {m}
  -6.345136490969223,4.35603540146455,2.2098;  !- X,Y,Z Vertex 4 {m}
  
OS:Surface,
  {46983ab8-ce64-4f36-90cb-e8d421dea62c},                           !- Handle
  su-12,                                !- Name
  Floor,                                   !- Surface Type
  {},               !- Construction Name
  sp-2-Space,                    !- Space Name
  Ground,                   !- Outside Boundary Condition
  ,             !- Outside Boundary Condition Object
  NoSun,                                !- Sun Exposure
  NoWind,                               !- Wind Exposure
  ,                         !- View Factor to Ground
  ,                                !- Number of Vertices
1.0874993565663795,7.016467454764452,0.0,  !- X,Y,Z Vertex 1 {m}
  1.0874993565663795,-0.7051325452355379,0.0,  !- X,Y,Z Vertex 2 {m}
  -5.955815879684601,-0.7051325452355379,0.0,  !- X,Y,Z Vertex 3 {m}
  -6.549785110453848,7.016467454764452,0.0;  !- X,Y,Z Vertex 4 {m}
  
OS:Space,
{33d483f3-a7b0-4fec-9153-dada6a820599},           !- Handle
sp-3-Space,                  !- Name
,                   !- Space Type Name
  ,     !- Default Construction Set Name
,     !- Default Schedule Set Name
,   !- Direction of Relative North {deg}
,                    !- X Origin {m}
,                    !- Y Origin {m}
,                    !- Z Origin {m}
,          !- Building Story Name
;            !- Thermal Zone Name

OS:Space,
{83ec859a-b7c7-404c-9a53-66017511df99},           !- Handle
sp-4-Space,                  !- Name
,                   !- Space Type Name
  ,     !- Default Construction Set Name
,     !- Default Schedule Set Name
,   !- Direction of Relative North {deg}
,                    !- X Origin {m}
,                    !- Y Origin {m}
,                    !- Z Origin {m}
,          !- Building Story Name
;            !- Thermal Zone Name

OS:Construction,
{2e098dc7-db0e-4db8-a2c7-de1cf69e5245},                              !- Handle
Basic Wall:Generic - 8",                                            !- Name
,                            !- Surface Rendering Name
{f50ca968-15eb-42d5-8c2b-4c48b0096a50};                   !- Layer 1

OS:Material,
{f50ca968-15eb-42d5-8c2b-4c48b0096a50},                              !- Handle
Default Wall,                                            !- Name
MediumRough,                                       !- Roughness
0.666666666666667,                                 	   !- Thickness
123.0,                                    !- Conductivity
123.0,                                         !- Density
123.0,                                    !- Specific Heat
,                                                   !- Thermal Absorptance
,                                                   !- Solar Absorptance
;                                                   !- Visible Absorptance

OS:WindowMaterial:SimpleGlazingSystem,
{83d87227-ac87-4991-a744-644f802df74b},                              !- Handle
36" x 48"_Material,                                            !- Name
0.0,                                         !- U-Factor
0.0,                         !- Solar Heat Gain Coefficient
1.0;                              !- Visible Absorptance

OS:Construction,
{ddd1a1ae-8aad-4a24-bea0-84910183021c},                              !- Handle
36" x 48",                                            !- Name
,                            !- Surface Rendering Name
{83d87227-ac87-4991-a744-644f802df74b};                   !- Layer 1

